Ligand1
 OpenBabel07142510013D

  4  3  0  0  0  0  0  0  0  0999 V2000
    3.6720   -6.4470  -10.8850 C   0  0  0  0  0  1  0  0  0  0  0  0
    5.0960   -6.5050  -11.3970 C   0  0  0  0  0  2  0  0  0  0  0  0
    5.9630   -6.8070  -10.3150 O   0  0  0  0  0  0  0  0  0  0  0  0
    6.0440   -5.9990   -9.7810 H   0  0  0  0  0  0  0  0  0  0  0  0
  2  1  1  0  0  0  0
  2  3  1  0  0  0  0
  3  4  1  0  0  0  0
M  END
$$$$
