Ligand2
 OpenBabel07142510013D

  6  6  0  0  0  0  0  0  0  0999 V2000
    4.0470    0.7050  -15.9130 C   0  0  0  0  0  0  0  0  0  0  0  0
    4.8880    1.3640  -15.0170 C   0  0  0  0  0  0  0  0  0  0  0  0
    4.5910    1.3670  -13.6540 C   0  0  0  0  0  0  0  0  0  0  0  0
    3.4510    0.7100  -13.1880 C   0  0  0  0  0  0  0  0  0  0  0  0
    2.6100    0.0510  -14.0840 C   0  0  0  0  0  0  0  0  0  0  0  0
    2.9080    0.0490  -15.4470 C   0  0  0  0  0  0  0  0  0  0  0  0
  1  6  2  0  0  0  0
  1  2  1  0  0  0  0
  2  3  2  0  0  0  0
  3  4  1  0  0  0  0
  5  4  2  0  0  0  0
  6  5  1  0  0  0  0
M  END
$$$$
