Ligand2
 OpenBabel07142509203D

  6  6  0  0  0  0  0  0  0  0999 V2000
    4.2480    1.1100  -12.7400 C   0  0  0  0  0  0  0  0  0  0  0  0
    3.0780    0.7070  -13.3840 C   0  0  0  0  0  0  0  0  0  0  0  0
    3.0410    0.6230  -14.7760 C   0  0  0  0  0  0  0  0  0  0  0  0
    4.1750    0.9430  -15.5240 C   0  0  0  0  0  0  0  0  0  0  0  0
    5.3450    1.3460  -14.8800 C   0  0  0  0  0  0  0  0  0  0  0  0
    5.3810    1.4290  -13.4880 C   0  0  0  0  0  0  0  0  0  0  0  0
  2  1  1  0  0  0  0
  3  2  2  0  0  0  0
  4  5  2  0  0  0  0
  4  3  1  0  0  0  0
  5  6  1  0  0  0  0
  6  1  2  0  0  0  0
M  END
$$$$
