Ligand1
 OpenBabel07142508353D

  4  3  0  0  0  0  0  0  0  0999 V2000
    3.6840   -6.4540  -10.8740 C   0  0  0  0  0  1  0  0  0  0  0  0
    5.0990   -6.5100  -11.4100 C   0  0  0  0  0  2  0  0  0  0  0  0
    5.9880   -6.7970  -10.3410 O   0  0  0  0  0  0  0  0  0  0  0  0
    6.5650   -7.5220  -10.6370 H   0  0  0  0  0  0  0  0  0  0  0  0
  2  1  1  0  0  0  0
  2  3  1  0  0  0  0
  4  3  1  0  0  0  0
M  END
$$$$
