Ligand1
 OpenBabel07142507413D

  4  3  0  0  0  0  0  0  0  0999 V2000
    3.6830   -6.4450  -10.8890 C   0  0  0  0  0  1  0  0  0  0  0  0
    5.1120   -6.4690  -11.3880 C   0  0  0  0  0  2  0  0  0  0  0  0
    5.9700   -6.8230  -10.3150 O   0  0  0  0  0  0  0  0  0  0  0  0
    6.5290   -6.0490  -10.1290 H   0  0  0  0  0  0  0  0  0  0  0  0
  2  1  1  0  0  0  0
  2  3  1  0  0  0  0
  3  4  1  0  0  0  0
M  END
$$$$
